data original/D026799/Loads.dss
New Load.load_load1 conn=wye bus1=n250094.1.2.3 kV=0.433 Vminpu=0.7 Vmaxpu=1.3 model=1 kW=1.0 kvar=1.00001918018394 Phases=4
New Load.load_load10 conn=wye bus1=n250085.1.2.3 kV=0.433 Vminpu=0.7 Vmaxpu=1.3 model=1 kW=1.0 kvar=1.00001918018394 Phases=4
New Load.load_load11 conn=wye bus1=n250085.1.2.3 kV=0.433 Vminpu=0.7 Vmaxpu=1.3 model=1 kW=1.0 kvar=1.00001918018394 Phases=4
New Load.load_load12 conn=wye bus1=n250085.1.2.3 kV=0.433 Vminpu=0.7 Vmaxpu=1.3 model=1 kW=1.0 kvar=1.00001918018394 Phases=4
New Load.load_load13 conn=wye bus1=n250085.1.2.3 kV=0.433 Vminpu=0.7 Vmaxpu=1.3 model=1 kW=1.0 kvar=1.00001918018394 Phases=4
New Load.load_load14 conn=wye bus1=n250085.1.2.3 kV=0.433 Vminpu=0.7 Vmaxpu=1.3 model=1 kW=1.0 kvar=1.00001918018394 Phases=4
New Load.load_load15 conn=wye bus1=n250085.1.2.3 kV=0.433 Vminpu=0.7 Vmaxpu=1.3 model=1 kW=1.0 kvar=1.00001918018394 Phases=4
New Load.load_load16 conn=wye bus1=n250088.1.2.3 kV=0.433 Vminpu=0.7 Vmaxpu=1.3 model=1 kW=1.0 kvar=1.00001918018394 Phases=4
New Load.load_load17 conn=wye bus1=n250088.1.2.3 kV=0.433 Vminpu=0.7 Vmaxpu=1.3 model=1 kW=1.0 kvar=1.00001918018394 Phases=4
New Load.load_load18 conn=wye bus1=n250088.1.2.3 kV=0.433 Vminpu=0.7 Vmaxpu=1.3 model=1 kW=1.0 kvar=1.00001918018394 Phases=4
New Load.load_load19 conn=wye bus1=n250088.1.2.3 kV=0.433 Vminpu=0.7 Vmaxpu=1.3 model=1 kW=1.0 kvar=1.00001918018394 Phases=4
New Load.load_load2 conn=wye bus1=n250085.1.2.3 kV=0.433 Vminpu=0.7 Vmaxpu=1.3 model=1 kW=1.0 kvar=1.00001918018394 Phases=4
New Load.load_load20 conn=wye bus1=n250088.1.2.3 kV=0.433 Vminpu=0.7 Vmaxpu=1.3 model=1 kW=1.0 kvar=1.00001918018394 Phases=4
New Load.load_load21 conn=wye bus1=n250088.1.2.3 kV=0.433 Vminpu=0.7 Vmaxpu=1.3 model=1 kW=1.0 kvar=1.00001918018394 Phases=4
New Load.load_load3 conn=wye bus1=n250085.1.2.3 kV=0.433 Vminpu=0.7 Vmaxpu=1.3 model=1 kW=1.0 kvar=1.00001918018394 Phases=4
New Load.load_load4 conn=wye bus1=n250085.1.2.3 kV=0.433 Vminpu=0.7 Vmaxpu=1.3 model=1 kW=1.0 kvar=1.00001918018394 Phases=4
New Load.load_load5 conn=wye bus1=n250085.1.2.3 kV=0.433 Vminpu=0.7 Vmaxpu=1.3 model=1 kW=1.0 kvar=1.00001918018394 Phases=4
New Load.load_load6 conn=wye bus1=n250085.1.2.3 kV=0.433 Vminpu=0.7 Vmaxpu=1.3 model=1 kW=1.0 kvar=1.00001918018394 Phases=4
New Load.load_load7 conn=wye bus1=n250085.1.2.3 kV=0.433 Vminpu=0.7 Vmaxpu=1.3 model=1 kW=1.0 kvar=1.00001918018394 Phases=4
New Load.load_load8 conn=wye bus1=n250085.1.2.3 kV=0.433 Vminpu=0.7 Vmaxpu=1.3 model=1 kW=1.0 kvar=1.00001918018394 Phases=4
New Load.load_load9 conn=wye bus1=n250085.1.2.3 kV=0.433 Vminpu=0.7 Vmaxpu=1.3 model=1 kW=1.0 kvar=1.00001918018394 Phases=4
